20

C 1.4224 0.04085 -0.2054 
C 1.2664 -0.24315 0.0006 
C 1.1174 0.00985 0.2486 
C 0.9774 0.21885 -0.0414 
C 0.8244 -0.09515 -0.2004 
C 0.6714 -0.19815 0.1366 
C 0.5274 0.15385 0.1876 
C 0.3784 0.15085 -0.1664 
C 0.2244 -0.19515 -0.1064 
C 0.0764 -0.08015 0.2276 
C -0.0696 0.23485 0.0636 
C -0.2206 0.02485 -0.2204 
C -0.3736 -0.22015 0.0326 
C -0.5206 0.07085 0.2356 
C -0.6656 0.22785 -0.0834 
C -0.8176 -0.10815 -0.1884 
C -0.9706 -0.15215 0.1616 
C -1.1146 0.20385 0.1556 
C -1.2826 0.13785 -0.1824 
C -1.4506 -0.18215 -0.0554 
